INIT MASTER(S)
NASTRAN SYSTEM(442)=-1,SYSTEM(319)=1
ID BUCKLING,FEMAP
SOL SEBUCKL
CEND
  TITLE = BUCKLING-ANALYSIS
  ECHO = NONE
  DISPLACEMENT(PRINT) = ALL
  SPCFORCE(PRINT) = ALL
  STRESS(PRINT,CORNER) = ALL
  SPC = 1
  MEFFMASS(PLOT,GRID=0,SUMMARY) = YES
SUBCASE 1
  LOAD = 1
  MEFFMASS(PLOT,GRID=0,SUMMARY) = YES
SUBCASE 2
  LABEL = BUCKLING CASE
  METHOD = 1
  STATSUB(BUCKLING) = 1
  MEFFMASS(PLOT,GRID=0,SUMMARY) = YES
BEGIN BULK
$ ***************************************************************************
$   Written by : Femap
$   Version    : 2022.1.0
$   Translator : Simcenter Nastran
$   From Model : 
$   Date       : Sun May 24 23:59:46 2026
$   Output To  : C:\Users\arypr\AppData\Local\Temp\
$ ***************************************************************************
$
PARAM,PRGPST,NO
PARAM,POST,-2
PARAM,OGEOM,NO
PARAM,AUTOSPC,YES
PARAM,GRDPNT,0
EIGRL          1                       4       0                     MAX
CORD2C         1       0      0.      0.      0.      0.      0.      1.+FEMAPC1
+FEMAPC1      1.      0.      1.        
CORD2S         2       0      0.      0.      0.      0.      0.      1.+FEMAPC2
+FEMAPC2      1.      0.      1.        
$ Femap Load Set 1 : pbuckle1
FORCE          1       2       0      1.      0.      0.     -1.
$ Femap Constraint Set 1 : bottom
SPC1           1     126       2
SPC1           1    1236      22
$ Femap Property 1 : plate
PSHELL         1       1      6.       1               1              0.
$ Femap Material 1 : 200
MAT1           1    200.     80.     .25      0.      0.      0.        
GRID           1       0    150.    150.   3000.       0
GRID           2       0    150.      0.   3000.       0
GRID           3       0    150.      0.   2850.       0
GRID           4       0    150.      0.   2700.       0
GRID           5       0    150.      0.   2550.       0
GRID           6       0    150.      0.   2400.       0
GRID           7       0    150.      0.   2250.       0
GRID           8       0    150.      0.   2100.       0
GRID           9       0    150.      0.   1950.       0
GRID          10       0    150.      0.   1800.       0
GRID          11       0    150.      0.   1650.       0
GRID          12       0    150.      0.   1500.       0
GRID          13       0    150.      0.   1350.       0
GRID          14       0    150.      0.   1200.       0
GRID          15       0    150.      0.   1050.       0
GRID          16       0    150.      0.    900.       0
GRID          17       0    150.      0.    750.       0
GRID          18       0    150.      0.    600.       0
GRID          19       0    150.      0.    450.       0
GRID          20       0    150.      0.    300.       0
$ ... 85 like lines cut
CQUAD4         1       1       1       2       3      42                
CQUAD4         2       1      42       3       4      41                
CQUAD4         3       1      41       4       5      40                
CQUAD4         4       1      40       5       6      39                
CQUAD4         5       1      39       6       7      38                
CQUAD4         6       1      38       7       8      37                
CQUAD4         7       1      37       8       9      36                
CQUAD4         8       1      36       9      10      35                
CQUAD4         9       1      35      10      11      34                
CQUAD4        10       1      34      11      12      33                
CQUAD4        11       1      33      12      13      32                
CQUAD4        12       1      32      13      14      31                
CQUAD4        13       1      31      14      15      30                
CQUAD4        14       1      30      15      16      29                
CQUAD4        15       1      29      16      17      28                
CQUAD4        16       1      28      17      18      27                
CQUAD4        17       1      27      18      19      26                
CQUAD4        18       1      26      19      20      25                
CQUAD4        19       1      25      20      21      24                
CQUAD4        20       1      24      21      22      23                
$ ... 60 like lines cut
ENDDATA 8f120de0
