ID EIGEN-13 CQUADR DKMQ24
SOL 103
CEND
TITLE = EIGEN-13 CQUADR DKMQ24
ECHO = NONE
DISPLACEMENT(PRINT) = ALL
SUBCASE 1
  LABEL = EIGEN-13 modal check
  METHOD = 100
  SPC = 101
BEGIN BULK
PARAM,POST,-1
PARAM,AUTOSPC,N
PARAM,SOLLIB,BANDED
PARAM,GRIDSEQ,RCM
PARAM,LANCMETH,ARPACK
PARAM,K6ROT,1.000000E+00
PARAM,GRDPNT,0
EIGRL,100,,,6
PARAM,QUAD4TYP,DKMQ
MAT1,1,2.065800E+11,,3.000000E-01,7.856475E+03
PSHELL,1,1,3.048000E-03,1,1.000000E+00,1,8.333333E-01
GRID,1,,-1.508080E-01,0.000000E+00,5.906510E-01
GRID,2,,-1.434130E-01,0.000000E+00,5.924900E-01
GRID,3,,-1.359960E-01,0.000000E+00,5.942370E-01
GRID,4,,-1.285580E-01,0.000000E+00,5.958900E-01
GRID,5,,-1.210990E-01,0.000000E+00,5.974500E-01
GRID,6,,-1.136220E-01,0.000000E+00,5.989180E-01
GRID,7,,-1.061270E-01,0.000000E+00,6.002910E-01
GRID,8,,-9.861520E-02,0.000000E+00,6.015710E-01
GRID,9,,-9.108800E-02,0.000000E+00,6.027560E-01
GRID,10,,-8.354670E-02,0.000000E+00,6.038480E-01
GRID,11,,-7.599220E-02,0.000000E+00,6.048450E-01
GRID,12,,-6.842590E-02,0.000000E+00,6.057480E-01
GRID,13,,-6.084890E-02,0.000000E+00,6.065550E-01
GRID,14,,-5.326240E-02,0.000000E+00,6.072690E-01
GRID,15,,-4.566760E-02,0.000000E+00,6.078870E-01
GRID,16,,-3.806570E-02,0.000000E+00,6.084100E-01
GRID,17,,-3.045770E-02,0.000000E+00,6.088390E-01
GRID,18,,-2.284510E-02,0.000000E+00,6.091720E-01
GRID,19,,-1.522880E-02,0.000000E+00,6.094100E-01
GRID,20,,-7.610230E-03,0.000000E+00,6.095520E-01
$ ... 1661 like lines cut
SNORM,1,,-2.473895E-01,0.000000E+00,9.689161E-01
SNORM,2,,-2.352586E-01,0.000000E+00,9.719328E-01
SNORM,3,,-2.230913E-01,0.000000E+00,9.747976E-01
SNORM,4,,-2.108900E-01,0.000000E+00,9.775098E-01
SNORM,5,,-1.986542E-01,0.000000E+00,9.800696E-01
SNORM,6,,-1.863885E-01,0.000000E+00,9.824761E-01
SNORM,7,,-1.740937E-01,0.000000E+00,9.847291E-01
SNORM,8,,-1.617710E-01,0.000000E+00,9.868283E-01
SNORM,9,,-1.494234E-01,0.000000E+00,9.887733E-01
SNORM,10,,-1.370524E-01,0.000000E+00,9.905638E-01
SNORM,11,,-1.246599E-01,0.000000E+00,9.921995E-01
SNORM,12,,-1.122479E-01,0.000000E+00,9.936802E-01
SNORM,13,,-9.981859E-02,0.000000E+00,9.950057E-01
SNORM,14,,-8.737341E-02,0.000000E+00,9.961756E-01
SNORM,15,,-7.491478E-02,0.000000E+00,9.971899E-01
SNORM,16,,-6.244449E-02,0.000000E+00,9.980484E-01
SNORM,17,,-4.996410E-02,0.000000E+00,9.987510E-01
SNORM,18,,-3.747625E-02,0.000000E+00,9.992975E-01
SNORM,19,,-2.498231E-02,0.000000E+00,9.996879E-01
SNORM,20,,-1.248466E-02,0.000000E+00,9.999221E-01
$ ... 1661 like lines cut
CQUADR,1,1,2,1,42,43
CQUADR,2,1,3,2,43,44
CQUADR,3,1,4,3,44,45
CQUADR,4,1,5,4,45,46
CQUADR,5,1,6,5,46,47
CQUADR,6,1,7,6,47,48
CQUADR,7,1,8,7,48,49
CQUADR,8,1,9,8,49,50
CQUADR,9,1,10,9,50,51
CQUADR,10,1,11,10,51,52
CQUADR,11,1,12,11,52,53
CQUADR,12,1,13,12,53,54
CQUADR,13,1,14,13,54,55
CQUADR,14,1,15,14,55,56
CQUADR,15,1,16,15,56,57
CQUADR,16,1,17,16,57,58
CQUADR,17,1,18,17,58,59
CQUADR,18,1,19,18,59,60
CQUADR,19,1,20,19,60,61
CQUADR,20,1,21,20,61,62
$ ... 1580 like lines cut
SPC1,101,123456,1,2,3,4,5,6,7,8,9,10,11,12,13,14,15,16,17,18,19,20,21,22,23,24,25,26,27,28,29,30,31,32,33,34,35,36,37,38,39,40,41
ENDDATA
