ID Static-33,CQUADR_out_of_plane_shear
SOL 101
CEND
TITLE = Static-33 CQUADR Out-of-plane shear
ECHO = NONE
DISP(PRINT,POST) = ALL
STRES(CORNER,PRINT,POST) = ALL
FORCES(CORNER,PRINT,POST) = ALL
SPCFORCES(PRINT,POST) = ALL
SUBCASE 1
  SPC = 101
  LOAD = 201
BEGIN BULK
PARAM,POST,-1
PARAM,SOLLIB,BANDED
PARAM,K6ROT,1.000000E+00
PARAM,GRDPNT,0
GRID,1,,0.000000E+00,-5.500000E-01,0.000000E+00
GRID,2,,0.000000E+00,-2.750000E-01,0.000000E+00
GRID,3,,0.000000E+00,0.000000E+00,0.000000E+00
GRID,4,,0.000000E+00,2.750000E-01,0.000000E+00
GRID,5,,0.000000E+00,5.500000E-01,0.000000E+00
GRID,6,,5.000000E-01,-5.488220E-01,-3.597170E-02
GRID,7,,5.000000E-01,-2.744110E-01,-1.798590E-02
GRID,8,,5.000000E-01,0.000000E+00,0.000000E+00
GRID,9,,5.000000E-01,2.744110E-01,1.798590E-02
GRID,10,,5.000000E-01,5.488220E-01,3.597170E-02
GRID,11,,1.000000E+00,-5.452950E-01,-7.178940E-02
GRID,12,,1.000000E+00,-2.726470E-01,-3.589470E-02
GRID,13,,1.000000E+00,0.000000E+00,0.000000E+00
GRID,14,,1.000000E+00,2.726470E-01,3.589470E-02
GRID,15,,1.000000E+00,5.452950E-01,7.178940E-02
GRID,16,,1.500000E+00,-5.394320E-01,-1.073000E-01
GRID,17,,1.500000E+00,-2.697160E-01,-5.364980E-02
GRID,18,,1.500000E+00,0.000000E+00,0.000000E+00
GRID,19,,1.500000E+00,2.697160E-01,5.364980E-02
GRID,20,,1.500000E+00,5.394320E-01,1.073000E-01
$ ... 105 like lines cut
CQUADR,1,1,1,2,7,6
CQUADR,2,1,2,3,8,7
CQUADR,3,1,3,4,9,8
CQUADR,4,1,4,5,10,9
CQUADR,5,1,6,7,12,11
CQUADR,6,1,7,8,13,12
CQUADR,7,1,8,9,14,13
CQUADR,8,1,9,10,15,14
CQUADR,9,1,11,12,17,16
CQUADR,10,1,12,13,18,17
CQUADR,11,1,13,14,19,18
CQUADR,12,1,14,15,20,19
CQUADR,13,1,16,17,22,21
CQUADR,14,1,17,18,23,22
CQUADR,15,1,18,19,24,23
CQUADR,16,1,19,20,25,24
CQUADR,17,1,21,22,27,26
CQUADR,18,1,22,23,28,27
CQUADR,19,1,23,24,29,28
CQUADR,20,1,24,25,30,29
$ ... 76 like lines cut
PSHELL,1,1,3.200000E-01,1,1.000000E+00,1,8.333333E-01
MAT1,1,2.900000E+07,1.188525E+07,2.200000E-01,0.000000E+00
SPC1,101,135,1
SPC1,101,135,2
SPC1,101,135,4
SPC1,101,135,5
SPC1,101,1235,3
FORCE,201,121,,-1.250000E-01,0.000000E+00,1.000000E+00,0.000000E+00
FORCE,201,122,,-2.500000E-01,0.000000E+00,1.000000E+00,0.000000E+00
FORCE,201,123,,-2.500000E-01,0.000000E+00,1.000000E+00,0.000000E+00
FORCE,201,124,,-2.500000E-01,0.000000E+00,1.000000E+00,0.000000E+00
FORCE,201,125,,-1.250000E-01,0.000000E+00,1.000000E+00,0.000000E+00
ENDDATA
