SOL 101
CEND
TITLE = MACNEAL STATIC37 CPYRAM5 NEWSOLID outplane_y NX12
SUBCASE 1
  SPC = 1
  LOAD = 1
  DISPLACEMENT(PRINT,POST) = ALL
  STRESS(CENTER,CORNER,PRINT,POST) = ALL
  FORCE(PRINT,POST) = ALL
  GPSTRES(PRINT,POST) = ALL
  GPSDCON (PRINT,POST)= ALL
  SPCFORCES (PRINT,POST)= ALL
BEGIN BULK
PARAM,POST,-1
PARAM,SOLIDTYP,NEWSOLID
GRID,1,,0.0,-0.55,-0.16
GRID,2,,0.0,-0.55,0.16
GRID,3,,0.0,0.0,-0.16
GRID,4,,0.0,0.0,0.16
GRID,5,,0.0,0.55,-0.16
GRID,6,,0.0,0.55,0.16
GRID,7,,1.0,-0.52441048,-0.23042058
GRID,8,,1.0,-0.56617886,0.086841772
GRID,9,,1.0,0.020884191,-0.15863118
GRID,10,,1.0,-0.020884191,0.15863118
GRID,11,,1.0,0.56617886,-0.086841772
GRID,12,,1.0,0.52441048,0.23042058
GRID,13,,2.0,-0.48984816,-0.29689861
GRID,14,,2.0,-0.57267025,0.012197657
GRID,15,,2.0,0.041411047,-0.15454813
GRID,16,,2.0,-0.041411047,0.15454813
GRID,17,,2.0,0.57267025,-0.012197657
GRID,18,,2.0,0.48984816,0.29689861
GRID,19,,3.0,-0.44690439,-0.35829661
GRID,20,,3.0,-0.56936309,-0.062655163
$ ... 82 like lines cut
CPYRAM,1,1,1,3,4,2,79
CPYRAM,2,1,7,8,10,9,79
CPYRAM,3,1,1,2,8,7,79
CPYRAM,4,1,3,9,10,4,79
CPYRAM,5,1,1,7,9,3,79
CPYRAM,6,1,2,4,10,8,79
CPYRAM,7,1,3,5,6,4,80
CPYRAM,8,1,9,10,12,11,80
CPYRAM,9,1,3,4,10,9,80
CPYRAM,10,1,5,11,12,6,80
CPYRAM,11,1,3,9,11,5,80
CPYRAM,12,1,4,6,12,10,80
CPYRAM,13,1,7,9,10,8,81
CPYRAM,14,1,13,14,16,15,81
CPYRAM,15,1,7,8,14,13,81
CPYRAM,16,1,9,15,16,10,81
CPYRAM,17,1,7,13,15,9,81
CPYRAM,18,1,8,10,16,14,81
CPYRAM,19,1,9,11,12,10,82
CPYRAM,20,1,15,16,18,17,82
$ ... 124 like lines cut
PSOLID,1,1
MAT1,1,2.9+7,,0.22,1.0
SPC,1,1,13,0.
SPC,1,2,13,0.
SPC,1,3,13,0.
SPC,1,3,2,0.
SPC,1,4,13,0.
SPC,1,4,2,0.
SPC,1,5,13,0.
SPC,1,6,13,0.
FORCE,1,73,,0.16666667,0.0,-1.0,0.0
FORCE,1,74,,0.16666667,0.0,-1.0,0.0
FORCE,1,75,,0.16666667,0.0,-1.0,0.0
FORCE,1,76,,0.16666667,0.0,-1.0,0.0
FORCE,1,77,,0.16666667,0.0,-1.0,0.0
FORCE,1,78,,0.16666667,0.0,-1.0,0.0
ENDDATA
