ID DKMTQ,CQUADR
SOL 5
CEND
TITLE = SS PLATE BUCKLING CQUADR
ECHO = NONE
DISP(PRINT,POST) = ALL
SUBCASE 1
  SPC = 101
  LOAD = 201
SUBCASE 2
  METHOD = 20
BEGIN BULK
PARAM,POST,-1
PARAM,SOLLIB,BANDED
PARAM,K6ROT,1.0
PARAM,AUTOSPC,N
GRID,1,,0.00000000E+00,0.00000000E+00,0.0
GRID,2,,6.25000000E-02,0.00000000E+00,0.0
GRID,3,,1.25000000E-01,0.00000000E+00,0.0
GRID,4,,1.87500000E-01,0.00000000E+00,0.0
GRID,5,,2.50000000E-01,0.00000000E+00,0.0
GRID,6,,3.12500000E-01,0.00000000E+00,0.0
GRID,7,,3.75000000E-01,0.00000000E+00,0.0
GRID,8,,4.37500000E-01,0.00000000E+00,0.0
GRID,9,,5.00000000E-01,0.00000000E+00,0.0
GRID,10,,5.62500000E-01,0.00000000E+00,0.0
GRID,11,,6.25000000E-01,0.00000000E+00,0.0
GRID,12,,6.87500000E-01,0.00000000E+00,0.0
GRID,13,,7.50000000E-01,0.00000000E+00,0.0
GRID,14,,8.12500000E-01,0.00000000E+00,0.0
GRID,15,,8.75000000E-01,0.00000000E+00,0.0
GRID,16,,9.37500000E-01,0.00000000E+00,0.0
GRID,17,,1.00000000E+00,0.00000000E+00,0.0
GRID,18,,0.00000000E+00,6.25000000E-02,0.0
GRID,19,,6.25000000E-02,6.25000000E-02,0.0
GRID,20,,1.25000000E-01,6.25000000E-02,0.0
$ ... 269 like lines cut
CQUADR,1,1,1,2,19,18
CQUADR,2,1,2,3,20,19
CQUADR,3,1,3,4,21,20
CQUADR,4,1,4,5,22,21
CQUADR,5,1,5,6,23,22
CQUADR,6,1,6,7,24,23
CQUADR,7,1,7,8,25,24
CQUADR,8,1,8,9,26,25
CQUADR,9,1,9,10,27,26
CQUADR,10,1,10,11,28,27
CQUADR,11,1,11,12,29,28
CQUADR,12,1,12,13,30,29
CQUADR,13,1,13,14,31,30
CQUADR,14,1,14,15,32,31
CQUADR,15,1,15,16,33,32
CQUADR,16,1,16,17,34,33
CQUADR,17,1,18,19,36,35
CQUADR,18,1,19,20,37,36
CQUADR,19,1,20,21,38,37
CQUADR,20,1,21,22,39,38
$ ... 236 like lines cut
PSHELL,1,1,1.00000000E-02,1,1.0,1,0.8333333333
MAT1,1,2.10000000E+11,,3.00000000E-01,0.0
SPC,101,1,1236,0.0
SPC,101,2,36,0.0
SPC,101,3,36,0.0
SPC,101,4,36,0.0
SPC,101,5,36,0.0
SPC,101,6,36,0.0
SPC,101,7,36,0.0
SPC,101,8,36,0.0
SPC,101,9,36,0.0
SPC,101,10,36,0.0
SPC,101,11,36,0.0
SPC,101,12,36,0.0
SPC,101,13,36,0.0
SPC,101,14,36,0.0
SPC,101,15,36,0.0
SPC,101,16,36,0.0
SPC,101,17,36,0.0
SPC,101,18,1236,0.0
SPC,101,19,6,0.0
SPC,101,20,6,0.0
$ ... 269 like lines cut
FORCE,201,17,,-3.12500000E-02,1.0,0.0,0.0
FORCE,201,34,,-6.25000000E-02,1.0,0.0,0.0
FORCE,201,51,,-6.25000000E-02,1.0,0.0,0.0
FORCE,201,68,,-6.25000000E-02,1.0,0.0,0.0
FORCE,201,85,,-6.25000000E-02,1.0,0.0,0.0
FORCE,201,102,,-6.25000000E-02,1.0,0.0,0.0
FORCE,201,119,,-6.25000000E-02,1.0,0.0,0.0
FORCE,201,136,,-6.25000000E-02,1.0,0.0,0.0
FORCE,201,153,,-6.25000000E-02,1.0,0.0,0.0
FORCE,201,170,,-6.25000000E-02,1.0,0.0,0.0
FORCE,201,187,,-6.25000000E-02,1.0,0.0,0.0
FORCE,201,204,,-6.25000000E-02,1.0,0.0,0.0
FORCE,201,221,,-6.25000000E-02,1.0,0.0,0.0
FORCE,201,238,,-6.25000000E-02,1.0,0.0,0.0
FORCE,201,255,,-6.25000000E-02,1.0,0.0,0.0
FORCE,201,272,,-6.25000000E-02,1.0,0.0,0.0
FORCE,201,289,,-3.12500000E-02,1.0,0.0,0.0
EIGRL,20,,,4,,,,MAX
ENDDATA
